data_1
_symmetry_cell_setting           triclinic
_symmetry_space_group_name_H-M   'P 1'
_symmetry_Int_Tables_number      1
_space_group_name_Hall           'P 1'
loop_
_symmetry_equiv_pos_site_id
_symmetry_equiv_pos_as_xyz
1 x,y,z
_cell_length_a                   5.2513
_cell_length_b                   9.5848
_cell_length_c                   12.2752
_cell_angle_alpha                111.548
_cell_angle_beta                 91.115
_cell_angle_gamma                99.923
loop_
_atom_site_label
_atom_site_type_symbol
_atom_site_fract_x
_atom_site_fract_y
_atom_site_fract_z
C1 C 0.2476 0.1872 0.3354
C2 C 0.0709 0.0384 0.3135
C3 C -0.1469 0.0318 0.3756
H1 H -0.188971 0.123227 0.429660
C4 C -0.3025 -0.1084 0.3583
H2 H -0.452393 -0.112598 0.399912
C5 C -0.2406 -0.2422 0.2807
H3 H -0.347179 -0.338039 0.269548
C6 C -0.0240 -0.2362 0.2196
H4 H 0.019521 -0.328201 0.167136
C7 C 0.1301 -0.0970 0.2344
H5 H 0.276641 -0.093513 0.190588
C8 C 0.3828 0.2139 0.2376
C9 C 0.2542 0.1582 0.1248
H6 H 0.086654 0.094964 0.108877
C10 C 0.3712 0.1953 0.0364
H7 H 0.282843 0.157918 -0.040053
C11 C 0.6151 0.2862 0.0585
H8 H 0.692518 0.313158 -0.002074
C12 C 0.7472 0.3381 0.1687
H9 H 0.917070 0.398549 0.183286
C13 C 0.6320 0.3020 0.2581
H10 H 0.723412 0.337659 0.333705
N1 N 0.2859 0.2943 0.43818
Cu1 Cu 0.500000 0.500000 0.500000
Cl1 Cl 0.22967 0.58487 0.40117
H11 H 0.201 0.272 0.489
C1A C 0.7524 0.8128 0.6646
C2A C 0.9291 0.9616 0.6865
C3A C 1.1469 0.9682 0.6244
H1A H 1.188971 0.876773 0.570340
C4A C 1.3025 1.1084 0.6417
H2A H 1.452393 1.112598 0.600088
C5A C 1.2406 1.2422 0.7193
H3A H 1.347179 1.338039 0.730452
C6A C 1.0240 1.2362 0.7804
H4A H 0.980479 1.328201 0.832864
C7A C 0.8699 1.0970 0.7656
H5A H 0.723359 1.093513 0.809412
C8A C 0.6172 0.7861 0.7624
C9A C 0.7458 0.8418 0.8752
H6A H 0.913346 0.905036 0.891123
C10A C 0.6288 0.8047 0.9636
H7A H 0.717157 0.842082 1.040053
C11A C 0.3849 0.7138 0.9415
H8A H 0.307482 0.686842 1.002074
C12A C 0.2528 0.6619 0.8313
H9A H 0.082930 0.601451 0.816714
C13A C 0.3680 0.6980 0.7419
H10A H 0.276588 0.662341 0.666295
N1A N 0.7141 0.7057 0.56182
Cl1A Cl 0.77033 0.41513 0.59883
H11A H 0.799 0.728 0.511


data_2
_symmetry_cell_setting           triclinic
_symmetry_space_group_name_H-M   'P -1'
_symmetry_Int_Tables_number      2
_space_group_name_Hall           '-P 1'
loop_
_symmetry_equiv_pos_site_id
_symmetry_equiv_pos_as_xyz
1 x,y,z
2 -x,-y,-z
_cell_length_a                   5.2513
_cell_length_b                   9.5848
_cell_length_c                   12.2752
_cell_angle_alpha                111.548
_cell_angle_beta                 91.115
_cell_angle_gamma                99.923
loop_
_atom_site_label
_atom_site_type_symbol
_atom_site_fract_x
_atom_site_fract_y
_atom_site_fract_z
C1 C 0.2476 0.1872 0.3354
C2 C 0.0709 0.0384 0.3135
C3 C -0.1469 0.0318 0.3756
H1 H -0.188971 0.123227 0.429660
C4 C -0.3025 -0.1084 0.3583
H2 H -0.452393 -0.112598 0.399912
C5 C -0.2406 -0.2422 0.2807
H3 H -0.347179 -0.338039 0.269548
C6 C -0.0240 -0.2362 0.2196
H4 H 0.019521 -0.328201 0.167136
C7 C 0.1301 -0.0970 0.2344
H5 H 0.276641 -0.093513 0.190588
C8 C 0.3828 0.2139 0.2376
C9 C 0.2542 0.1582 0.1248
H6 H 0.086654 0.094964 0.108877
C10 C 0.3712 0.1953 0.0364
H7 H 0.282843 0.157918 -0.040053
C11 C 0.6151 0.2862 0.0585
H8 H 0.692518 0.313158 -0.002074
C12 C 0.7472 0.3381 0.1687
H9 H 0.917070 0.398549 0.183286
C13 C 0.6320 0.3020 0.2581
H10 H 0.723412 0.337659 0.333705
N1 N 0.2859 0.2943 0.43818
Cu1 Cu 0.500000 0.500000 0.500000
Cl1 Cl 0.22967 0.58487 0.40117
H11 H 0.201 0.272 0.489
